Version 4
SHEET 1 880 680
WIRE 688 80 688 48
WIRE 608 112 496 112
WIRE 608 144 512 144
FLAG 688 48 VDD
FLAG 400 160 VDD
FLAG 688 176 0
FLAG 400 240 0
FLAG -64 32 VA
FLAG -112 144 VB
FLAG 496 112 VA
FLAG 512 144 VB
FLAG 784 128 VOUT
SYMBOL Exp-5 640 128 R0
SYMATTR InstName X1
SYMBOL voltage -64 16 R0
WINDOW 3 60 36 Left 2
WINDOW 123 0 0 Left 0
WINDOW 39 0 0 Left 0
SYMATTR InstName V1
SYMATTR Value PULSE(0 5 0 1n 1n 10u 21u)
SYMBOL voltage -112 128 R0
WINDOW 3 -49 152 Left 2
WINDOW 123 0 0 Left 0
WINDOW 39 0 0 Left 0
SYMATTR InstName V2
SYMATTR Value PULSE(0 5 5u 1n 1n 10u 21u)
SYMBOL voltage 400 144 R0
WINDOW 123 0 0 Left 0
WINDOW 39 0 0 Left 0
SYMATTR InstName V3
SYMATTR Value 5
TEXT 336 -80 Left 2 !.INCLUDE tsmc018.lib
TEXT 352 -40 Left 2 !.tran 0 210u 1u
